BEGIN Configuration File: examples/fattree_config
// $Id: dragonflyconfig 3555 2011-05-16 23:37:55Z dub $

// Copyright (c) 2007-2015, Trustees of The Leland Stanford Junior University
// All rights reserved.
//
// Redistribution and use in source and binary forms, with or without
// modification, are permitted provided that the following conditions are met:
//
// Redistributions of source code must retain the above copyright notice, this
// list of conditions and the following disclaimer.
// Redistributions in binary form must reproduce the above copyright notice,
// this list of conditions and the following disclaimer in the documentation
// and/or other materials provided with the distribution.
//
// THIS SOFTWARE IS PROVIDED BY THE COPYRIGHT HOLDERS AND CONTRIBUTORS "AS IS"
// AND ANY EXPRESS OR IMPLIED WARRANTIES, INCLUDING, BUT NOT LIMITED TO, THE
// IMPLIED WARRANTIES OF MERCHANTABILITY AND FITNESS FOR A PARTICULAR PURPOSE
// ARE DISCLAIMED. IN NO EVENT SHALL THE COPYRIGHT OWNER OR CONTRIBUTORS BE
// LIABLE FOR ANY DIRECT, INDIRECT, INCIDENTAL, SPECIAL, EXEMPLARY, OR
// CONSEQUENTIAL DAMAGES (INCLUDING, BUT NOT LIMITED TO, PROCUREMENT OF
// SUBSTITUTE GOODS OR SERVICES; LOSS OF USE, DATA, OR PROFITS; OR BUSINESS
// INTERRUPTION) HOWEVER CAUSED AND ON ANY THEORY OF LIABILITY, WHETHER IN
// CONTRACT, STRICT LIABILITY, OR TORT (INCLUDING NEGLIGENCE OR OTHERWISE)
// ARISING IN ANY WAY OUT OF THE USE OF THIS SOFTWARE, EVEN IF ADVISED OF THE
// POSSIBILITY OF SUCH DAMAGE.


hold_switch_for_packet=1;

vc_buf_size = 16;


wait_for_tail_credit = 0;

//
// Router architecture
//
vc_allocator = separable_input_first; 
sw_allocator = separable_input_first;
alloc_iters  = 1;

credit_delay   = 2;
routing_delay  = 0;
vc_alloc_delay = 1;
sw_alloc_delay = 1;
st_final_delay = 1;

input_speedup     = 1;
output_speedup    = 1;
internal_speedup  = 1.0;


warmup_periods = 3;
sim_count          = 1;

sample_period  = 10000;  



routing_function = nca;
num_vcs     = 4;

priority = none;
traffic       = uniform;

injection_rate = 0.28;
packet_size = 1;
injection_rate_uses_flits=1;

topology = fattree;


k  = 8;
n  = 3;
t = 4;

watch_out=-;;END Configuration File: examples/fattree_config
Fat Tree
 k = 8 levels = 3
 each switch - total radix =  16
 # of switches = 192
 # of channels = 2048
 # of nodes ( size of network ) = 512
Class 0:
Packet latency average = 209.415
	minimum = 6
	maximum = 1641
Network latency average = 201.379
	minimum = 6
	maximum = 1209
Slowest packet = 714940
Flit latency average = 201.379
	minimum = 6
	maximum = 1209
Slowest flit = 1006308
Fragmentation average = 0
	minimum = 0
	maximum = 0
Injected packet rate average = 0.278188
	minimum = 0.258 (at node 120)
	maximum = 0.2949 (at node 441)
Accepted packet rate average = 0.269126
	minimum = 0.2554 (at node 370)
	maximum = 0.2829 (at node 130)
Injected flit rate average = 0.278188
	minimum = 0.258 (at node 120)
	maximum = 0.2949 (at node 441)
Accepted flit rate average= 0.269126
	minimum = 0.2554 (at node 370)
	maximum = 0.2829 (at node 130)
Injected packet length average = 1
Accepted packet length average = 1
Total in-flight flits = 46523 (0 measured)
latency change    = 1
throughput change = 1
Class 0:
Packet latency average = 379.667
	minimum = 6
	maximum = 2356
Network latency average = 282.858
	minimum = 6
	maximum = 1467
Slowest packet = 714940
Flit latency average = 282.858
	minimum = 6
	maximum = 1467
Slowest flit = 1834817
Fragmentation average = 0
	minimum = 0
	maximum = 0
Injected packet rate average = 0.274889
	minimum = 0.2587 (at node 346)
	maximum = 0.2889 (at node 144)
Accepted packet rate average = 0.269705
	minimum = 0.25925 (at node 326)
	maximum = 0.28095 (at node 194)
Injected flit rate average = 0.274889
	minimum = 0.2587 (at node 346)
	maximum = 0.2889 (at node 144)
Accepted flit rate average= 0.269705
	minimum = 0.25925 (at node 326)
	maximum = 0.28095 (at node 194)
Injected packet length average = 1
Accepted packet length average = 1
Total in-flight flits = 53383 (0 measured)
latency change    = 0.448423
throughput change = 0.00214681
Class 0:
Packet latency average = 909.245
	minimum = 6
	maximum = 3427
Network latency average = 389.561
	minimum = 6
	maximum = 1404
Slowest packet = 2708449
Flit latency average = 389.561
	minimum = 6
	maximum = 1404
Slowest flit = 3562264
Fragmentation average = 0
	minimum = 0
	maximum = 0
Injected packet rate average = 0.269579
	minimum = 0.2321 (at node 439)
	maximum = 0.3 (at node 125)
Accepted packet rate average = 0.269443
	minimum = 0.2539 (at node 311)
	maximum = 0.2847 (at node 261)
Injected flit rate average = 0.269579
	minimum = 0.2321 (at node 439)
	maximum = 0.3 (at node 125)
Accepted flit rate average= 0.269443
	minimum = 0.2539 (at node 311)
	maximum = 0.2847 (at node 261)
Injected packet length average = 1
Accepted packet length average = 1
Total in-flight flits = 54143 (0 measured)
latency change    = 0.582437
throughput change = 0.00097097
Average latency for class 0 exceeded 500 cycles. Aborting simulation.
Too many sample periods needed to converge
Simulation unstable, ending ...
Total run time 101.866
