BEGIN Configuration File: examples/fattree_config
// $Id: dragonflyconfig 3555 2011-05-16 23:37:55Z dub $

// Copyright (c) 2007-2015, Trustees of The Leland Stanford Junior University
// All rights reserved.
//
// Redistribution and use in source and binary forms, with or without
// modification, are permitted provided that the following conditions are met:
//
// Redistributions of source code must retain the above copyright notice, this
// list of conditions and the following disclaimer.
// Redistributions in binary form must reproduce the above copyright notice,
// this list of conditions and the following disclaimer in the documentation
// and/or other materials provided with the distribution.
//
// THIS SOFTWARE IS PROVIDED BY THE COPYRIGHT HOLDERS AND CONTRIBUTORS "AS IS"
// AND ANY EXPRESS OR IMPLIED WARRANTIES, INCLUDING, BUT NOT LIMITED TO, THE
// IMPLIED WARRANTIES OF MERCHANTABILITY AND FITNESS FOR A PARTICULAR PURPOSE
// ARE DISCLAIMED. IN NO EVENT SHALL THE COPYRIGHT OWNER OR CONTRIBUTORS BE
// LIABLE FOR ANY DIRECT, INDIRECT, INCIDENTAL, SPECIAL, EXEMPLARY, OR
// CONSEQUENTIAL DAMAGES (INCLUDING, BUT NOT LIMITED TO, PROCUREMENT OF
// SUBSTITUTE GOODS OR SERVICES; LOSS OF USE, DATA, OR PROFITS; OR BUSINESS
// INTERRUPTION) HOWEVER CAUSED AND ON ANY THEORY OF LIABILITY, WHETHER IN
// CONTRACT, STRICT LIABILITY, OR TORT (INCLUDING NEGLIGENCE OR OTHERWISE)
// ARISING IN ANY WAY OUT OF THE USE OF THIS SOFTWARE, EVEN IF ADVISED OF THE
// POSSIBILITY OF SUCH DAMAGE.


hold_switch_for_packet=1;

vc_buf_size = 16;


wait_for_tail_credit = 0;

//
// Router architecture
//
vc_allocator = separable_input_first; 
sw_allocator = separable_input_first;
alloc_iters  = 1;

credit_delay   = 2;
routing_delay  = 0;
vc_alloc_delay = 1;
sw_alloc_delay = 1;
st_final_delay = 1;

input_speedup     = 1;
output_speedup    = 1;
internal_speedup  = 1.0;


warmup_periods = 3;
sim_count          = 1;

sample_period  = 10000;  



routing_function = nca;
num_vcs     = 4;

priority = none;
traffic       = bitcomp;

injection_rate = 0.45;
packet_size = 1;
injection_rate_uses_flits=1;

topology = fattree;


k  = 8;
n  = 3;
t = 2;

watch_out=-;;END Configuration File: examples/fattree_config
Fat Tree
 k = 8 levels = 3
 each switch - total radix =  16
 # of switches = 192
 # of channels = 2048
 # of nodes ( size of network ) = 512
Class 0:
Packet latency average = 222.116
	minimum = 22
	maximum = 1402
Network latency average = 177.917
	minimum = 22
	maximum = 831
Slowest packet = 316954
Flit latency average = 177.917
	minimum = 22
	maximum = 831
Slowest flit = 1841130
Fragmentation average = 0
	minimum = 0
	maximum = 0
Injected packet rate average = 0.442097
	minimum = 0.4092 (at node 305)
	maximum = 0.46 (at node 75)
Accepted packet rate average = 0.431443
	minimum = 0.3986 (at node 206)
	maximum = 0.4492 (at node 436)
Injected flit rate average = 0.442097
	minimum = 0.4092 (at node 305)
	maximum = 0.46 (at node 75)
Accepted flit rate average= 0.431443
	minimum = 0.3986 (at node 206)
	maximum = 0.4492 (at node 436)
Injected packet length average = 1
Accepted packet length average = 1
Total in-flight flits = 54768 (0 measured)
latency change    = 1
throughput change = 1
Class 0:
Packet latency average = 399.265
	minimum = 22
	maximum = 2070
Network latency average = 213.721
	minimum = 22
	maximum = 899
Slowest packet = 316954
Flit latency average = 213.721
	minimum = 22
	maximum = 899
Slowest flit = 3915217
Fragmentation average = 0
	minimum = 0
	maximum = 0
Injected packet rate average = 0.438265
	minimum = 0.4184 (at node 369)
	maximum = 0.45345 (at node 472)
Accepted packet rate average = 0.432741
	minimum = 0.41335 (at node 142)
	maximum = 0.44935 (at node 15)
Injected flit rate average = 0.438265
	minimum = 0.4184 (at node 369)
	maximum = 0.45345 (at node 472)
Accepted flit rate average= 0.432741
	minimum = 0.41335 (at node 142)
	maximum = 0.44935 (at node 15)
Injected packet length average = 1
Accepted packet length average = 1
Total in-flight flits = 56838 (0 measured)
latency change    = 0.443686
throughput change = 0.00299914
Class 0:
Packet latency average = 934.515
	minimum = 22
	maximum = 2849
Network latency average = 251.191
	minimum = 22
	maximum = 811
Slowest packet = 4416642
Flit latency average = 251.191
	minimum = 22
	maximum = 811
Slowest flit = 6067301
Fragmentation average = 0
	minimum = 0
	maximum = 0
Injected packet rate average = 0.433263
	minimum = 0.3864 (at node 403)
	maximum = 0.4623 (at node 151)
Accepted packet rate average = 0.433606
	minimum = 0.3868 (at node 82)
	maximum = 0.4659 (at node 210)
Injected flit rate average = 0.433263
	minimum = 0.3864 (at node 403)
	maximum = 0.4623 (at node 151)
Accepted flit rate average= 0.433606
	minimum = 0.3868 (at node 82)
	maximum = 0.4659 (at node 210)
Injected packet length average = 1
Accepted packet length average = 1
Total in-flight flits = 55107 (0 measured)
latency change    = 0.572757
throughput change = 0.00199634
Average latency for class 0 exceeded 500 cycles. Aborting simulation.
Too many sample periods needed to converge
Simulation unstable, ending ...
Total run time 172.028
