BEGIN Configuration File: examples/fattree_config
// $Id: dragonflyconfig 3555 2011-05-16 23:37:55Z dub $

// Copyright (c) 2007-2015, Trustees of The Leland Stanford Junior University
// All rights reserved.
//
// Redistribution and use in source and binary forms, with or without
// modification, are permitted provided that the following conditions are met:
//
// Redistributions of source code must retain the above copyright notice, this
// list of conditions and the following disclaimer.
// Redistributions in binary form must reproduce the above copyright notice,
// this list of conditions and the following disclaimer in the documentation
// and/or other materials provided with the distribution.
//
// THIS SOFTWARE IS PROVIDED BY THE COPYRIGHT HOLDERS AND CONTRIBUTORS "AS IS"
// AND ANY EXPRESS OR IMPLIED WARRANTIES, INCLUDING, BUT NOT LIMITED TO, THE
// IMPLIED WARRANTIES OF MERCHANTABILITY AND FITNESS FOR A PARTICULAR PURPOSE
// ARE DISCLAIMED. IN NO EVENT SHALL THE COPYRIGHT OWNER OR CONTRIBUTORS BE
// LIABLE FOR ANY DIRECT, INDIRECT, INCIDENTAL, SPECIAL, EXEMPLARY, OR
// CONSEQUENTIAL DAMAGES (INCLUDING, BUT NOT LIMITED TO, PROCUREMENT OF
// SUBSTITUTE GOODS OR SERVICES; LOSS OF USE, DATA, OR PROFITS; OR BUSINESS
// INTERRUPTION) HOWEVER CAUSED AND ON ANY THEORY OF LIABILITY, WHETHER IN
// CONTRACT, STRICT LIABILITY, OR TORT (INCLUDING NEGLIGENCE OR OTHERWISE)
// ARISING IN ANY WAY OUT OF THE USE OF THIS SOFTWARE, EVEN IF ADVISED OF THE
// POSSIBILITY OF SUCH DAMAGE.


hold_switch_for_packet=1;

vc_buf_size = 16;


wait_for_tail_credit = 0;

//
// Router architecture
//
vc_allocator = separable_input_first; 
sw_allocator = separable_input_first;
alloc_iters  = 1;

credit_delay   = 2;
routing_delay  = 0;
vc_alloc_delay = 1;
sw_alloc_delay = 1;
st_final_delay = 1;

input_speedup     = 1;
output_speedup    = 1;
internal_speedup  = 1.0;


warmup_periods = 3;
sim_count          = 1;

sample_period  = 10000;  



routing_function = nca;
num_vcs     = 4;

priority = none;
traffic       = bitcomp;

injection_rate = 0.50;
packet_size = 1;
injection_rate_uses_flits=1;

topology = fattree;


k  = 8;
n  = 3;
t = 2;

watch_out=-;;END Configuration File: examples/fattree_config
Fat Tree
 k = 8 levels = 3
 each switch - total radix =  16
 # of switches = 192
 # of channels = 2048
 # of nodes ( size of network ) = 512
Class 0:
Packet latency average = 677.56
	minimum = 22
	maximum = 2448
Network latency average = 234.131
	minimum = 22
	maximum = 807
Slowest packet = 246247
Flit latency average = 234.131
	minimum = 22
	maximum = 807
Slowest flit = 2002326
Fragmentation average = 0
	minimum = 0
	maximum = 0
Injected packet rate average = 0.443735
	minimum = 0.3937 (at node 289)
	maximum = 0.4786 (at node 108)
Accepted packet rate average = 0.432863
	minimum = 0.3836 (at node 222)
	maximum = 0.468 (at node 403)
Injected flit rate average = 0.443735
	minimum = 0.3937 (at node 289)
	maximum = 0.4786 (at node 108)
Accepted flit rate average= 0.432863
	minimum = 0.3836 (at node 222)
	maximum = 0.468 (at node 403)
Injected packet length average = 1
Accepted packet length average = 1
Total in-flight flits = 55956 (0 measured)
latency change    = 1
throughput change = 1
Average latency for class 0 exceeded 500 cycles. Aborting simulation.
Too many sample periods needed to converge
Simulation unstable, ending ...
Total run time 34.5958
