BEGIN Configuration File: examples/fattree_config
// $Id: dragonflyconfig 3555 2011-05-16 23:37:55Z dub $

// Copyright (c) 2007-2015, Trustees of The Leland Stanford Junior University
// All rights reserved.
//
// Redistribution and use in source and binary forms, with or without
// modification, are permitted provided that the following conditions are met:
//
// Redistributions of source code must retain the above copyright notice, this
// list of conditions and the following disclaimer.
// Redistributions in binary form must reproduce the above copyright notice,
// this list of conditions and the following disclaimer in the documentation
// and/or other materials provided with the distribution.
//
// THIS SOFTWARE IS PROVIDED BY THE COPYRIGHT HOLDERS AND CONTRIBUTORS "AS IS"
// AND ANY EXPRESS OR IMPLIED WARRANTIES, INCLUDING, BUT NOT LIMITED TO, THE
// IMPLIED WARRANTIES OF MERCHANTABILITY AND FITNESS FOR A PARTICULAR PURPOSE
// ARE DISCLAIMED. IN NO EVENT SHALL THE COPYRIGHT OWNER OR CONTRIBUTORS BE
// LIABLE FOR ANY DIRECT, INDIRECT, INCIDENTAL, SPECIAL, EXEMPLARY, OR
// CONSEQUENTIAL DAMAGES (INCLUDING, BUT NOT LIMITED TO, PROCUREMENT OF
// SUBSTITUTE GOODS OR SERVICES; LOSS OF USE, DATA, OR PROFITS; OR BUSINESS
// INTERRUPTION) HOWEVER CAUSED AND ON ANY THEORY OF LIABILITY, WHETHER IN
// CONTRACT, STRICT LIABILITY, OR TORT (INCLUDING NEGLIGENCE OR OTHERWISE)
// ARISING IN ANY WAY OUT OF THE USE OF THIS SOFTWARE, EVEN IF ADVISED OF THE
// POSSIBILITY OF SUCH DAMAGE.


hold_switch_for_packet=1;

vc_buf_size = 16;


wait_for_tail_credit = 0;

//
// Router architecture
//
vc_allocator = separable_input_first; 
sw_allocator = separable_input_first;
alloc_iters  = 1;

credit_delay   = 2;
routing_delay  = 0;
vc_alloc_delay = 1;
sw_alloc_delay = 1;
st_final_delay = 1;

input_speedup     = 1;
output_speedup    = 1;
internal_speedup  = 1.0;


warmup_periods = 3;
sim_count          = 1;

sample_period  = 10000;  



routing_function = nca;
num_vcs     = 4;

priority = none;
traffic       = bitcomp;

injection_rate = 0.70;
packet_size = 1;
injection_rate_uses_flits=1;

topology = fattree;


k  = 8;
n  = 3;
t = 1;

watch_out=-;;END Configuration File: examples/fattree_config
Fat Tree
 k = 8 levels = 3
 each switch - total radix =  16
 # of switches = 192
 # of channels = 2048
 # of nodes ( size of network ) = 512
Class 0:
Packet latency average = 319.334
	minimum = 22
	maximum = 986
Network latency average = 180.824
	minimum = 22
	maximum = 514
Slowest packet = 544073
Flit latency average = 180.824
	minimum = 22
	maximum = 514
Slowest flit = 3173637
Fragmentation average = 0
	minimum = 0
	maximum = 0
Injected packet rate average = 0.674033
	minimum = 0.654 (at node 504)
	maximum = 0.6881 (at node 129)
Accepted packet rate average = 0.660684
	minimum = 0.6408 (at node 7)
	maximum = 0.6755 (at node 382)
Injected flit rate average = 0.674033
	minimum = 0.654 (at node 504)
	maximum = 0.6881 (at node 129)
Accepted flit rate average= 0.660684
	minimum = 0.6408 (at node 7)
	maximum = 0.6755 (at node 382)
Injected packet length average = 1
Accepted packet length average = 1
Total in-flight flits = 68508 (0 measured)
latency change    = 1
throughput change = 1
Class 0:
Packet latency average = 557.768
	minimum = 22
	maximum = 1635
Network latency average = 191.681
	minimum = 22
	maximum = 565
Slowest packet = 544073
Flit latency average = 191.681
	minimum = 22
	maximum = 565
Slowest flit = 6434135
Fragmentation average = 0
	minimum = 0
	maximum = 0
Injected packet rate average = 0.670633
	minimum = 0.65935 (at node 136)
	maximum = 0.6824 (at node 420)
Accepted packet rate average = 0.663814
	minimum = 0.65285 (at node 375)
	maximum = 0.67515 (at node 91)
Injected flit rate average = 0.670633
	minimum = 0.65935 (at node 136)
	maximum = 0.6824 (at node 420)
Accepted flit rate average= 0.663814
	minimum = 0.65285 (at node 375)
	maximum = 0.67515 (at node 91)
Injected packet length average = 1
Accepted packet length average = 1
Total in-flight flits = 70009 (0 measured)
latency change    = 0.427479
throughput change = 0.004715
Average latency for class 0 exceeded 500 cycles. Aborting simulation.
Too many sample periods needed to converge
Simulation unstable, ending ...
Total run time 162.123
